! dlpno-ccsd(t) cc-pvdz cc-pvdz/c cc-pvtz/jk rijk verytightscf TightPNO LED

*xyz 0 1
O(1)   -0.702196054  -0.056060256   0.009942262
H(1)   -1.022193224   0.846775782  -0.011488714
H(1)    0.257521062   0.042121496   0.005218999
O(2)    2.220871067   0.026716792   0.000620476
H(2)    2.597492682  -0.411663274   0.766744858
H(2)    2.593135384  -0.449496183  -0.744782026 
*
